Database/datos39n.m
bus = [1	1	0	0	0	0	0	0	0	3
2	1	0	0	0	0	0	0	0.3	3
3	1	0	0	0	322	2.4	0	0.1	3
4	1	0	0	0	500	184	0	0	3
5	1	0	0	0	0	0	0	0	3
6	1	0	0	0	0	0	0	0	3
7	1	0	0	0	233.8	84	0	-1.3	3
8	1	0	0	0	522	176	0	0	3
9	1	0	0	0	0	0	0	0	3
10	1	0	0	0	0	0	0	0	3
11	1	0	0	0	0	0	0	0	3
12	1	0	0	0	8.5	88	0	0	3
13	1	0	0	0	0	0	0	0	3
14	1	0	0	0	0	0	0	0	3
15	1	0	0	0	320	153	0	0	3
16	1	0	0	0	329.4	32.3	0	0	3
17	1	0	0	0	0	0	0	0	3
18	1	0	0	0	158	30	0	0	3
19	1	0	0	0	0	0	0	0	3
20	1	0	0	0	680	103	0	0	3
21	1	0	0	0	274	115	0	0	3
22	1	0	0	0	0	0	0	0	3
23	1	0	0	0	274.5	84.6	0	0	3
24	1	0	0	0	308.6	-92.2	0	0	3
25	1	0	0	0	224	47.2	0	0	3
26	1	0	0	0	139	17	0	0	3
27	1	0	0	0	281	75.5	0	0	3
28	1	0	0	0	206	27.6	0	0	3
29	1	0	0	0	283.3	26.9	0	0	3
30	1.044	0	250	0	0	0	0	0	2
31	0.982	0	0	0	9.2	4.6	0	0	1
32	0.983	0	650	0	0	0	0	0	2
33	0.996	0	632	0	0	0	0	-1.2	2
34	1.012	0	508	0	0	0	0	0.12	2
35	1.046	0	650	0	0	0	0	0	2
36	1.056	0	560	0	0	0	0	0	2
37	1.028	0	540	0	0	0	0	0	2
38	1.02	0	830	0	0	0	0	0	2
39	1.011	0	1000	0	1103.999	250	0	0	2];

line = [1	2	0.0035	0.0411	0.3493	0
1	39	0.001	0.025	0.375	0
2	3	0.0013	0.0151	0.1286	0
2	25	0.007	0.0086	0.073	0
3	4	0.0013	0.0213	0.1107	0
3	18	0.0011	0.0133	0.1069	0
4	5	0.0008	0.0128	0.0671	0
4	14	0.0008	0.0129	0.0691	0
5	6	0.0002	0.0026	0.0217	0
5	8	0.0008	0.0112	0.0738	0
6	7	0.0006	0.0092	0.0565	0
6	11	0.0007	0.0082	0.0695	0
7	8	0.0004	0.0046	0.039	0
8	9	0.0023	0.0363	0.1902	0
9	39	0.001	0.025	0.6	0
10	11	0.0004	0.0043	0.0364	0
10	13	0.0004	0.0043	0.0364	0
13	14	0.0009	0.0101	0.0861	0
14	15	0.0018	0.0217	0.183	0
15	16	0.0009	0.0094	0.0855	0
16	17	0.0007	0.0089	0.0671	0
16	19	0.0016	0.0195	0.152	0
16	21	0.0008	0.0135	0.1274	0
16	24	0.0003	0.0059	0.034	0
17	18	0.0007	0.0082	0.0659	0
17	27	0.0013	0.0173	0.1608	0
21	22	0.0008	0.014	0.1282	0
22	23	0.0006	0.0096	0.0923	0
23	24	0.0022	0.035	0.1805	0
25	26	0.0032	0.0323	0.2565	0
26	27	0.0014	0.0147	0.1198	0
26	28	0.0043	0.0474	0.3901	0
26	29	0.0057	0.0625	0.5145	0
28	29	0.0014	0.0151	0.1245	0
12	11	0	0.0435	0	0.9
12	13	0	0.0435	0	0.952
6	31	0	0.025	0	1.02
10	32	0	0.02	0	0.987
19	33	0	0.0142	0	0.91
20	34	0	0.018	0	0.912
22	35	0	0.0143	0	1.01
23	36	0	0.0272	0	0.923
25	37	0	0.0232	0	0.96
2	30	0	0.0181	0	0.97
29	38	0	0.0156	0	0.913
19	20	0	0.0138	0	1.12];